 /batch
    /prep7
    toffst,273.15,      
    tref,22.
    TB,HYPE,1,1,5,MOON
    TBDATA,1,-30.761573721800385,33.41235099345158,0.06457212708067578,-0.7374147433525001,10.109623794372203,0.0
    MP,DENS,1,1.19e-09,	
    MP,UVID,1,fc4313a1-c4ae-43af-b253-ad2923dee743
    FINISH
    